Version 4
SHEET 1 880 680
WIRE 416 0 352 0
WIRE 544 0 496 0
WIRE 656 0 544 0
WIRE 752 0 656 0
WIRE 656 80 656 64
WIRE 752 80 656 80
WIRE 272 112 272 0
WIRE 752 192 752 80
WIRE 272 208 272 192
WIRE 544 208 544 64
WIRE 544 208 272 208
WIRE 272 224 272 208
FLAG 752 192 0
FLAG 272 224 0
SYMBOL voltage 272 96 R0
WINDOW 123 24 124 Left 2
WINDOW 39 0 0 Left 0
SYMATTR Value2 AC 1 1
SYMATTR InstName V1
SYMATTR Value SINE(0 5 10)
SYMBOL res 368 -16 R90
WINDOW 0 0 56 VBottom 2
WINDOW 3 32 56 VTop 2
SYMATTR InstName R1
SYMATTR Value 1.17
SYMBOL ind 512 -16 R90
WINDOW 0 5 56 VBottom 2
WINDOW 3 32 56 VTop 2
SYMATTR InstName L1
SYMATTR Value 2.65µ
SYMBOL cap 640 0 R0
SYMATTR InstName C1
SYMATTR Value 50p
SYMBOL res 736 -16 R0
SYMATTR InstName R2
SYMATTR Value 100k
SYMBOL cap 528 0 R0
SYMATTR InstName C2
SYMATTR Value 2p
TEXT 296 240 Left 2 !.ac lin 10000 12MEG 15MEG
